/*--------------------------------*- C++ -*----------------------------------*\
| =========                 |                                                 |
| \\      /  F ield         | OpenFOAM: The Open Source CFD Toolbox           |
|  \\    /   O peration     | Version:  4.x                                   |
|   \\  /    A nd           | Web:      www.OpenFOAM.org                      |
|    \\/     M anipulation  |                                                 |
\*---------------------------------------------------------------------------*/
FoamFile
{
    version     2.0;
    format      ascii;
    class       volVectorField;
    object      U;
}
// * * * * * * * * * * * * * * * * * * * * * * * * * * * * * * * * * * * * * //

dimensions      [0 1 -1 0 0 0 0];

internalField   uniform (0.01 0 0);

boundaryField
{
    atmosphere
    {
        type            pressureInletOutletVelocity;
        value           uniform (0 0 0);
    }

    conveyor
    {
        type            fixedValue;
        value           uniform (0.30 0 0);
    }


    inlet
    {
        type            fixedValue;
        value           uniform (0 -0.2 0);
    }

    outlet
    {
        type            inletOutlet;
        inletValue      uniform (0 0 0);
        value           $internalField;
    }

    walls
    {
        type            noSlip;
    }


    frontAndBack
    {
        type            empty;
    }

}


// ************************************************************************* //
